[root]
type=Root
children=system
eventq_index=0
full_system=true
sim_quantum=0
time_sync_enable=false
time_sync_period=100000000000
time_sync_spin_threshold=100000000

[system]
type=ArmSystem
children=acctest bridge cf0 clk_domain cpu cpu_clk_domain cpu_voltage_domain dvfs_handler intrctrl iobus iocache l2 mem_ctrls membus pci_ide realview terminal tol2bus vncserver voltage_domain
auto_reset_addr=false
boot_loader=
boot_osflags=a
cache_line_size=64
dtb_filename=
eventq_index=0
exit_on_work_items=false
flags_addr=0
gic_cpu_addr=0
have_crypto=false
have_large_asid_64=false
have_lpae=true
have_lse=true
have_pan=true
have_security=false
have_sve=true
have_virtualization=false
highest_el_is_64=false
init_param=0
kernel=/home/sumukh/Desktop/Hetero/Final_proj/gem5-SALAM/benchmarks/fft/host/main.elf
kernel_addr_check=true
kernel_extras=
load_addr_mask=18446744073709551615
load_offset=0
m5ops_base=0
mem_mode=timing
mem_ranges=2147483648:6442450944
memories=system.acctest.acc_spm system.mem_ctrls system.realview.bootmem
mmap_using_noreserve=false
multi_proc=true
multi_thread=false
num_work_ids=16
phys_addr_range_64=40
readfile=
redirect_paths=
reset_addr=0
semihosting=Null
sve_vl=1
symbolfile=
thermal_components=
thermal_model=Null
work_begin_ckpt_count=0
work_begin_cpu_id_exit=-1
work_begin_exit_count=0
work_cpus_ckpt_count=0
work_end_ckpt_count=0
work_end_exit_count=0
work_item_id=-1
system_port=system.membus.slave[1]

[system.acctest]
type=AccCluster
children=acc acc_spm coherency_bus dma local_bus mem2cls stream_dma_0 stream_dma_1
cache_size=32kB
eventq_index=0
external_range_hi_max=4294967295
external_range_hi_min=2147483648
external_range_low_max=788529151
external_range_low_min=0
intrctrl=system.intrctrl
local_range_max=2147483647
local_range_min=788529152
system=system

[system.acctest.acc]
type=CommInterface
children=llvm_interface
cache_line_size=64
clk_domain=system.clk_domain
clock_period=10
config_size=0
data_bases=0
default_p_state=UNDEFINED
devicename=fft
enable_debug_msgs=true
eventq_index=0
flags_size=1
gic=system.realview.gic
int_num=68
p_state_clk_gate_bins=20
p_state_clk_gate_max=1000000000000
p_state_clk_gate_min=1000
pio_addr=788529152
pio_latency=100000
pio_size=64
power_model=
premap_data=false
reset_spm=true
system=system
acp=system.acctest.coherency_bus.slave[0]
local=system.acctest.local_bus.slave[1]
pio=system.acctest.local_bus.master[1]
spm=system.acctest.acc_spm.spm_ports[0] system.acctest.acc_spm.spm_ports[1] system.acctest.acc_spm.spm_ports[2] system.acctest.acc_spm.spm_ports[3] system.acctest.acc_spm.spm_ports[4] system.acctest.acc_spm.spm_ports[5] system.acctest.acc_spm.spm_ports[6] system.acctest.acc_spm.spm_ports[7]
stream=system.acctest.stream_dma_0.stream_in system.acctest.stream_dma_0.stream_out system.acctest.stream_dma_1.stream_in system.acctest.stream_dma_1.stream_out

[system.acctest.acc.llvm_interface]
type=LLVMInterface
children=cycles
FU_GEP=-1
FU_clock_period=10
FU_compare=-1
FU_conversion=-1
FU_counter=-1
FU_fp_dp_adder=-1
FU_fp_dp_divider=-1
FU_fp_dp_multiplier=-1
FU_fp_sp_adder=-1
FU_fp_sp_divider=-1
FU_fp_sp_multiplier=-1
FU_int_adder=-1
FU_int_bit=-1
FU_int_multiplier=-1
FU_int_shifter=-1
FU_pipelined=1
clock_period=10
comm_int=system.acctest.acc
cycles=system.acctest.acc.llvm_interface.cycles
eventq_index=0
in_file=/home/sumukh/Desktop/Hetero/Final_proj/gem5-SALAM/benchmarks/fft/bench/fft.ll
lockstep_mode=true
sched_threshold=10000

[system.acctest.acc.llvm_interface.cycles]
type=CycleCounts
add=1
addrspacecast=1
alloca=1
and_inst=1
ashr=1
atomicrmw=1
bitcast=1
br=0
call=1
catchpad=1
cmpxchg=1
counter=1
eventq_index=0
extractelement=1
extractvalue=1
fadd=5
fcmp=1
fdiv=16
fence=1
fmul=4
fpext=1
fptosi=1
fptoui=1
fptrunc=1
frem=16
fsub=5
gep=0
icmp=0
indirectbr=1
insertelement=1
insertvalue=1
inttoptr=1
invoke=1
landingpad=1
load=0
lshr=1
mul=1
or_inst=1
phi=0
ptrtoint=1
resume=1
ret=1
sdiv=1
select=1
sext=0
shl=1
shufflevector=1
srem=1
store=0
sub=1
switch_inst=1
trunc=0
udiv=1
uitofp=1
unreachable=1
urem=1
vaarg=1
xor_inst=1
zext=0

[system.acctest.acc_spm]
type=ScratchpadMemory
bandwidth=78.000000
clk_domain=system.clk_domain
conf_table_reported=false
default_p_state=UNDEFINED
eventq_index=0
in_addr_map=true
kvm_map=true
latency=2000
latency_var=0
null=false
p_state_clk_gate_bins=20
p_state_clk_gate_max=1000000000000
p_state_clk_gate_min=1000
power_model=
range=789577728:789708800
read_on_invalid=false
ready_mode=true
reset_on_scratchpad_read=false
write_on_valid=true
port=system.acctest.local_bus.master[0]
spm_ports=system.acctest.acc.spm[0] system.acctest.acc.spm[1] system.acctest.acc.spm[2] system.acctest.acc.spm[3] system.acctest.acc.spm[4] system.acctest.acc.spm[5] system.acctest.acc.spm[6] system.acctest.acc.spm[7]

[system.acctest.coherency_bus]
type=CoherentXBar
children=snoop_filter
clk_domain=system.clk_domain
default_p_state=UNDEFINED
eventq_index=0
forward_latency=0
frontend_latency=1
max_outstanding_snoops=512
max_routing_table_size=512
p_state_clk_gate_bins=20
p_state_clk_gate_max=1000000000000
p_state_clk_gate_min=1000
point_of_coherency=true
point_of_unification=true
power_model=
response_latency=1
snoop_filter=system.acctest.coherency_bus.snoop_filter
snoop_response_latency=4
system=system
use_default_range=false
width=2
master=system.tol2bus.slave[4]
slave=system.acctest.acc.acp[0] system.acctest.dma.dma system.acctest.stream_dma_0.dma system.acctest.stream_dma_1.dma

[system.acctest.coherency_bus.snoop_filter]
type=SnoopFilter
eventq_index=0
lookup_latency=1
max_capacity=8388608
system=system

[system.acctest.dma]
type=NoncoherentDma
buffer_size=1024
clk_domain=system.clk_domain
clock_period=10
default_p_state=UNDEFINED
devicename=noncoherent_dma
eventq_index=0
gic=system.realview.gic
int_num=95
max_pending=32
max_req_size=64
p_state_clk_gate_bins=20
p_state_clk_gate_max=1000000000000
p_state_clk_gate_min=1000
pio_addr=804257792
pio_delay=100000
pio_size=24
power_model=
sid=0
ssid=0
system=system
cluster_dma=system.acctest.local_bus.slave[2]
dma=system.acctest.coherency_bus.slave[1]
pio=system.acctest.local_bus.master[2]

[system.acctest.local_bus]
type=NoncoherentXBar
clk_domain=system.clk_domain
default_p_state=UNDEFINED
eventq_index=0
forward_latency=0
frontend_latency=1
p_state_clk_gate_bins=20
p_state_clk_gate_max=1000000000000
p_state_clk_gate_min=1000
power_model=
response_latency=1
use_default_range=false
width=2
master=system.acctest.acc_spm.port system.acctest.acc.pio system.acctest.dma.pio system.acctest.stream_dma_0.pio system.acctest.stream_dma_1.pio
slave=system.acctest.mem2cls.master system.acctest.acc.local[0] system.acctest.dma.cluster_dma

[system.acctest.mem2cls]
type=Bridge
clk_domain=system.clk_domain
default_p_state=UNDEFINED
delay=1000
eventq_index=0
p_state_clk_gate_bins=20
p_state_clk_gate_max=1000000000000
p_state_clk_gate_min=1000
power_model=
ranges=788529152:805306367
req_size=16
resp_size=16
master=system.acctest.local_bus.slave[0]
slave=system.membus.master[7]

[system.acctest.stream_dma_0]
type=StreamDma
clk_domain=system.clk_domain
default_p_state=UNDEFINED
devicename=stream_dma
eventq_index=0
gic=system.realview.gic
max_pending=32
max_req_size=64
mem_delay=1000
p_state_clk_gate_bins=20
p_state_clk_gate_max=1000000000000
p_state_clk_gate_min=1000
pio_addr=804323328
pio_delay=1000
pio_size=32
power_model=
rd_int=210
read_buffer_size=1024
sid=0
ssid=0
stream_addr=804323360
stream_size=8
system=system
wr_int=211
write_buffer_size=1024
dma=system.acctest.coherency_bus.slave[2]
pio=system.acctest.local_bus.master[3]
stream_in=system.acctest.acc.stream[0]
stream_out=system.acctest.acc.stream[1]

[system.acctest.stream_dma_1]
type=StreamDma
clk_domain=system.clk_domain
default_p_state=UNDEFINED
devicename=stream_dma
eventq_index=0
gic=system.realview.gic
max_pending=32
max_req_size=64
mem_delay=1000
p_state_clk_gate_bins=20
p_state_clk_gate_max=1000000000000
p_state_clk_gate_min=1000
pio_addr=804388864
pio_delay=1000
pio_size=32
power_model=
rd_int=212
read_buffer_size=1024
sid=0
ssid=0
stream_addr=804388896
stream_size=8
system=system
wr_int=213
write_buffer_size=1024
dma=system.acctest.coherency_bus.slave[3]
pio=system.acctest.local_bus.master[4]
stream_in=system.acctest.acc.stream[2]
stream_out=system.acctest.acc.stream[3]

[system.bridge]
type=Bridge
clk_domain=system.clk_domain
default_p_state=UNDEFINED
delay=50000
eventq_index=0
p_state_clk_gate_bins=20
p_state_clk_gate_max=1000000000000
p_state_clk_gate_min=1000
power_model=
ranges=201326592:536870912
req_size=16
resp_size=16
master=system.iobus.slave[0]
slave=system.membus.master[0]

[system.cf0]
type=IdeDisk
children=image
delay=1000000
driveID=master
eventq_index=0
image=system.cf0.image

[system.cf0.image]
type=CowDiskImage
children=child
child=system.cf0.image.child
eventq_index=0
image_file=
read_only=false
table_size=65536

[system.cf0.image.child]
type=RawDiskImage
eventq_index=0
image_file=/home/sumukh/Desktop/Hetero/Final_proj/gem5-SALAM/baremetal/common/fake.iso
read_only=true

[system.clk_domain]
type=SrcClockDomain
clock=1000
domain_id=-1
eventq_index=0
init_perf_level=0
voltage_domain=system.voltage_domain

[system.cpu]
type=DerivO3CPU
children=branchPred dcache dtb fuPool icache interrupts isa itb tracer
LFSTSize=1024
LQEntries=32
LSQCheckLoads=true
LSQDepCheckShift=4
SQEntries=32
SSITSize=1024
activity=0
backComSize=5
branchPred=system.cpu.branchPred
cacheLoadPorts=200
cacheStorePorts=200
checker=Null
clk_domain=system.cpu_clk_domain
commitToDecodeDelay=1
commitToFetchDelay=1
commitToIEWDelay=1
commitToRenameDelay=1
commitWidth=8
cpu_id=0
decodeToFetchDelay=1
decodeToRenameDelay=1
decodeWidth=8
default_p_state=UNDEFINED
dispatchWidth=8
do_checkpoint_insts=true
do_quiesce=true
do_statistics_insts=true
dtb=system.cpu.dtb
eventq_index=0
fetchBufferSize=64
fetchQueueSize=32
fetchToDecodeDelay=1
fetchTrapLatency=1
fetchWidth=8
forwardComSize=5
fuPool=system.cpu.fuPool
function_trace=false
function_trace_start=0
iewToCommitDelay=1
iewToDecodeDelay=1
iewToFetchDelay=1
iewToRenameDelay=1
interrupts=system.cpu.interrupts
isa=system.cpu.isa
issueToExecuteDelay=1
issueWidth=8
itb=system.cpu.itb
max_insts_all_threads=0
max_insts_any_thread=0
needsTSO=false
numIQEntries=64
numPhysCCRegs=1280
numPhysFloatRegs=256
numPhysIntRegs=256
numPhysVecPredRegs=32
numPhysVecRegs=256
numROBEntries=192
numRobs=1
numThreads=1
p_state_clk_gate_bins=20
p_state_clk_gate_max=1000000000000
p_state_clk_gate_min=1000
power_gating_on_idle=false
power_model=
profile=0
progress_interval=0
pwr_gating_latency=300
renameToDecodeDelay=1
renameToFetchDelay=1
renameToIEWDelay=2
renameToROBDelay=1
renameWidth=8
simpoint_start_insts=
smtCommitPolicy=RoundRobin
smtFetchPolicy=SingleThread
smtIQPolicy=Partitioned
smtIQThreshold=100
smtLSQPolicy=Partitioned
smtLSQThreshold=100
smtNumFetchingThreads=1
smtROBPolicy=Partitioned
smtROBThreshold=100
socket_id=0
squashWidth=8
store_set_clear_period=250000
switched_out=false
syscallRetryLatency=10000
system=system
tracer=system.cpu.tracer
trapLatency=13
wait_for_remote_gdb=false
wbWidth=8
workload=
dcache_port=system.cpu.dcache.cpu_side
icache_port=system.cpu.icache.cpu_side

[system.cpu.branchPred]
type=TournamentBP
children=indirectBranchPred
BTBEntries=4096
BTBTagSize=16
RASSize=16
choiceCtrBits=2
choicePredictorSize=8192
eventq_index=0
globalCtrBits=2
globalPredictorSize=8192
indirectBranchPred=system.cpu.branchPred.indirectBranchPred
instShiftAmt=2
localCtrBits=2
localHistoryTableSize=2048
localPredictorSize=2048
numThreads=1

[system.cpu.branchPred.indirectBranchPred]
type=SimpleIndirectPredictor
eventq_index=0
indirectGHRBits=13
indirectHashGHR=true
indirectHashTargets=true
indirectPathLength=3
indirectSets=256
indirectTagSize=16
indirectWays=2
instShiftAmt=2
numThreads=1

[system.cpu.dcache]
type=Cache
children=replacement_policy tags
addr_ranges=0:18446744073709551615
assoc=2
clk_domain=system.cpu_clk_domain
clusivity=mostly_incl
compressor=Null
data_latency=2
default_p_state=UNDEFINED
demand_mshr_reserve=1
eventq_index=0
is_read_only=false
max_miss_count=0
mshrs=4
p_state_clk_gate_bins=20
p_state_clk_gate_max=1000000000000
p_state_clk_gate_min=1000
power_model=
prefetch_on_access=false
prefetcher=Null
replacement_policy=system.cpu.dcache.replacement_policy
response_latency=2
sequential_access=false
size=65536
system=system
tag_latency=2
tags=system.cpu.dcache.tags
tgts_per_mshr=20
warmup_percentage=0
write_allocator=Null
write_buffers=8
writeback_clean=false
cpu_side=system.cpu.dcache_port
mem_side=system.tol2bus.slave[1]

[system.cpu.dcache.replacement_policy]
type=LRURP
eventq_index=0

[system.cpu.dcache.tags]
type=BaseSetAssoc
children=indexing_policy
assoc=2
block_size=64
clk_domain=system.cpu_clk_domain
default_p_state=UNDEFINED
entry_size=64
eventq_index=0
indexing_policy=system.cpu.dcache.tags.indexing_policy
p_state_clk_gate_bins=20
p_state_clk_gate_max=1000000000000
p_state_clk_gate_min=1000
power_model=
replacement_policy=system.cpu.dcache.replacement_policy
sequential_access=false
size=65536
system=system
tag_latency=2
warmup_percentage=0

[system.cpu.dcache.tags.indexing_policy]
type=SetAssociative
assoc=2
entry_size=64
eventq_index=0
size=65536

[system.cpu.dtb]
type=ArmTLB
children=stage2_mmu walker
eventq_index=0
is_stage2=false
size=64
sys=system
walker=system.cpu.dtb.walker

[system.cpu.dtb.stage2_mmu]
type=ArmStage2MMU
children=stage2_tlb
eventq_index=0
stage2_tlb=system.cpu.dtb.stage2_mmu.stage2_tlb
sys=system
tlb=system.cpu.dtb

[system.cpu.dtb.stage2_mmu.stage2_tlb]
type=ArmTLB
children=walker
eventq_index=0
is_stage2=true
size=32
sys=system
walker=system.cpu.dtb.stage2_mmu.stage2_tlb.walker

[system.cpu.dtb.stage2_mmu.stage2_tlb.walker]
type=ArmTableWalker
clk_domain=system.cpu_clk_domain
default_p_state=UNDEFINED
eventq_index=0
is_stage2=true
num_squash_per_cycle=2
p_state_clk_gate_bins=20
p_state_clk_gate_max=1000000000000
p_state_clk_gate_min=1000
power_model=
sys=system

[system.cpu.dtb.walker]
type=ArmTableWalker
clk_domain=system.cpu_clk_domain
default_p_state=UNDEFINED
eventq_index=0
is_stage2=false
num_squash_per_cycle=2
p_state_clk_gate_bins=20
p_state_clk_gate_max=1000000000000
p_state_clk_gate_min=1000
power_model=
sys=system
port=system.tol2bus.slave[3]

[system.cpu.fuPool]
type=FUPool
children=FUList0 FUList1 FUList2 FUList3 FUList4 FUList5 FUList6 FUList7 FUList8 FUList9
FUList=system.cpu.fuPool.FUList0 system.cpu.fuPool.FUList1 system.cpu.fuPool.FUList2 system.cpu.fuPool.FUList3 system.cpu.fuPool.FUList4 system.cpu.fuPool.FUList5 system.cpu.fuPool.FUList6 system.cpu.fuPool.FUList7 system.cpu.fuPool.FUList8 system.cpu.fuPool.FUList9
eventq_index=0

[system.cpu.fuPool.FUList0]
type=FUDesc
children=opList
count=6
eventq_index=0
opList=system.cpu.fuPool.FUList0.opList

[system.cpu.fuPool.FUList0.opList]
type=OpDesc
eventq_index=0
opClass=IntAlu
opLat=1
pipelined=true

[system.cpu.fuPool.FUList1]
type=FUDesc
children=opList0 opList1
count=2
eventq_index=0
opList=system.cpu.fuPool.FUList1.opList0 system.cpu.fuPool.FUList1.opList1

[system.cpu.fuPool.FUList1.opList0]
type=OpDesc
eventq_index=0
opClass=IntMult
opLat=3
pipelined=true

[system.cpu.fuPool.FUList1.opList1]
type=OpDesc
eventq_index=0
opClass=IntDiv
opLat=20
pipelined=false

[system.cpu.fuPool.FUList2]
type=FUDesc
children=opList0 opList1 opList2
count=4
eventq_index=0
opList=system.cpu.fuPool.FUList2.opList0 system.cpu.fuPool.FUList2.opList1 system.cpu.fuPool.FUList2.opList2

[system.cpu.fuPool.FUList2.opList0]
type=OpDesc
eventq_index=0
opClass=FloatAdd
opLat=2
pipelined=true

[system.cpu.fuPool.FUList2.opList1]
type=OpDesc
eventq_index=0
opClass=FloatCmp
opLat=2
pipelined=true

[system.cpu.fuPool.FUList2.opList2]
type=OpDesc
eventq_index=0
opClass=FloatCvt
opLat=2
pipelined=true

[system.cpu.fuPool.FUList3]
type=FUDesc
children=opList0 opList1 opList2 opList3 opList4
count=2
eventq_index=0
opList=system.cpu.fuPool.FUList3.opList0 system.cpu.fuPool.FUList3.opList1 system.cpu.fuPool.FUList3.opList2 system.cpu.fuPool.FUList3.opList3 system.cpu.fuPool.FUList3.opList4

[system.cpu.fuPool.FUList3.opList0]
type=OpDesc
eventq_index=0
opClass=FloatMult
opLat=4
pipelined=true

[system.cpu.fuPool.FUList3.opList1]
type=OpDesc
eventq_index=0
opClass=FloatMultAcc
opLat=5
pipelined=true

[system.cpu.fuPool.FUList3.opList2]
type=OpDesc
eventq_index=0
opClass=FloatMisc
opLat=3
pipelined=true

[system.cpu.fuPool.FUList3.opList3]
type=OpDesc
eventq_index=0
opClass=FloatDiv
opLat=12
pipelined=false

[system.cpu.fuPool.FUList3.opList4]
type=OpDesc
eventq_index=0
opClass=FloatSqrt
opLat=24
pipelined=false

[system.cpu.fuPool.FUList4]
type=FUDesc
children=opList0 opList1
count=0
eventq_index=0
opList=system.cpu.fuPool.FUList4.opList0 system.cpu.fuPool.FUList4.opList1

[system.cpu.fuPool.FUList4.opList0]
type=OpDesc
eventq_index=0
opClass=MemRead
opLat=1
pipelined=true

[system.cpu.fuPool.FUList4.opList1]
type=OpDesc
eventq_index=0
opClass=FloatMemRead
opLat=1
pipelined=true

[system.cpu.fuPool.FUList5]
type=FUDesc
children=opList00 opList01 opList02 opList03 opList04 opList05 opList06 opList07 opList08 opList09 opList10 opList11 opList12 opList13 opList14 opList15 opList16 opList17 opList18 opList19 opList20 opList21 opList22 opList23 opList24 opList25
count=4
eventq_index=0
opList=system.cpu.fuPool.FUList5.opList00 system.cpu.fuPool.FUList5.opList01 system.cpu.fuPool.FUList5.opList02 system.cpu.fuPool.FUList5.opList03 system.cpu.fuPool.FUList5.opList04 system.cpu.fuPool.FUList5.opList05 system.cpu.fuPool.FUList5.opList06 system.cpu.fuPool.FUList5.opList07 system.cpu.fuPool.FUList5.opList08 system.cpu.fuPool.FUList5.opList09 system.cpu.fuPool.FUList5.opList10 system.cpu.fuPool.FUList5.opList11 system.cpu.fuPool.FUList5.opList12 system.cpu.fuPool.FUList5.opList13 system.cpu.fuPool.FUList5.opList14 system.cpu.fuPool.FUList5.opList15 system.cpu.fuPool.FUList5.opList16 system.cpu.fuPool.FUList5.opList17 system.cpu.fuPool.FUList5.opList18 system.cpu.fuPool.FUList5.opList19 system.cpu.fuPool.FUList5.opList20 system.cpu.fuPool.FUList5.opList21 system.cpu.fuPool.FUList5.opList22 system.cpu.fuPool.FUList5.opList23 system.cpu.fuPool.FUList5.opList24 system.cpu.fuPool.FUList5.opList25

[system.cpu.fuPool.FUList5.opList00]
type=OpDesc
eventq_index=0
opClass=SimdAdd
opLat=1
pipelined=true

[system.cpu.fuPool.FUList5.opList01]
type=OpDesc
eventq_index=0
opClass=SimdAddAcc
opLat=1
pipelined=true

[system.cpu.fuPool.FUList5.opList02]
type=OpDesc
eventq_index=0
opClass=SimdAlu
opLat=1
pipelined=true

[system.cpu.fuPool.FUList5.opList03]
type=OpDesc
eventq_index=0
opClass=SimdCmp
opLat=1
pipelined=true

[system.cpu.fuPool.FUList5.opList04]
type=OpDesc
eventq_index=0
opClass=SimdCvt
opLat=1
pipelined=true

[system.cpu.fuPool.FUList5.opList05]
type=OpDesc
eventq_index=0
opClass=SimdMisc
opLat=1
pipelined=true

[system.cpu.fuPool.FUList5.opList06]
type=OpDesc
eventq_index=0
opClass=SimdMult
opLat=1
pipelined=true

[system.cpu.fuPool.FUList5.opList07]
type=OpDesc
eventq_index=0
opClass=SimdMultAcc
opLat=1
pipelined=true

[system.cpu.fuPool.FUList5.opList08]
type=OpDesc
eventq_index=0
opClass=SimdShift
opLat=1
pipelined=true

[system.cpu.fuPool.FUList5.opList09]
type=OpDesc
eventq_index=0
opClass=SimdShiftAcc
opLat=1
pipelined=true

[system.cpu.fuPool.FUList5.opList10]
type=OpDesc
eventq_index=0
opClass=SimdDiv
opLat=1
pipelined=true

[system.cpu.fuPool.FUList5.opList11]
type=OpDesc
eventq_index=0
opClass=SimdSqrt
opLat=1
pipelined=true

[system.cpu.fuPool.FUList5.opList12]
type=OpDesc
eventq_index=0
opClass=SimdFloatAdd
opLat=1
pipelined=true

[system.cpu.fuPool.FUList5.opList13]
type=OpDesc
eventq_index=0
opClass=SimdFloatAlu
opLat=1
pipelined=true

[system.cpu.fuPool.FUList5.opList14]
type=OpDesc
eventq_index=0
opClass=SimdFloatCmp
opLat=1
pipelined=true

[system.cpu.fuPool.FUList5.opList15]
type=OpDesc
eventq_index=0
opClass=SimdFloatCvt
opLat=1
pipelined=true

[system.cpu.fuPool.FUList5.opList16]
type=OpDesc
eventq_index=0
opClass=SimdFloatDiv
opLat=1
pipelined=true

[system.cpu.fuPool.FUList5.opList17]
type=OpDesc
eventq_index=0
opClass=SimdFloatMisc
opLat=1
pipelined=true

[system.cpu.fuPool.FUList5.opList18]
type=OpDesc
eventq_index=0
opClass=SimdFloatMult
opLat=1
pipelined=true

[system.cpu.fuPool.FUList5.opList19]
type=OpDesc
eventq_index=0
opClass=SimdFloatMultAcc
opLat=1
pipelined=true

[system.cpu.fuPool.FUList5.opList20]
type=OpDesc
eventq_index=0
opClass=SimdFloatSqrt
opLat=1
pipelined=true

[system.cpu.fuPool.FUList5.opList21]
type=OpDesc
eventq_index=0
opClass=SimdReduceAdd
opLat=1
pipelined=true

[system.cpu.fuPool.FUList5.opList22]
type=OpDesc
eventq_index=0
opClass=SimdReduceAlu
opLat=1
pipelined=true

[system.cpu.fuPool.FUList5.opList23]
type=OpDesc
eventq_index=0
opClass=SimdReduceCmp
opLat=1
pipelined=true

[system.cpu.fuPool.FUList5.opList24]
type=OpDesc
eventq_index=0
opClass=SimdFloatReduceAdd
opLat=1
pipelined=true

[system.cpu.fuPool.FUList5.opList25]
type=OpDesc
eventq_index=0
opClass=SimdFloatReduceCmp
opLat=1
pipelined=true

[system.cpu.fuPool.FUList6]
type=FUDesc
children=opList
count=1
eventq_index=0
opList=system.cpu.fuPool.FUList6.opList

[system.cpu.fuPool.FUList6.opList]
type=OpDesc
eventq_index=0
opClass=SimdPredAlu
opLat=1
pipelined=true

[system.cpu.fuPool.FUList7]
type=FUDesc
children=opList0 opList1
count=0
eventq_index=0
opList=system.cpu.fuPool.FUList7.opList0 system.cpu.fuPool.FUList7.opList1

[system.cpu.fuPool.FUList7.opList0]
type=OpDesc
eventq_index=0
opClass=MemWrite
opLat=1
pipelined=true

[system.cpu.fuPool.FUList7.opList1]
type=OpDesc
eventq_index=0
opClass=FloatMemWrite
opLat=1
pipelined=true

[system.cpu.fuPool.FUList8]
type=FUDesc
children=opList0 opList1 opList2 opList3
count=4
eventq_index=0
opList=system.cpu.fuPool.FUList8.opList0 system.cpu.fuPool.FUList8.opList1 system.cpu.fuPool.FUList8.opList2 system.cpu.fuPool.FUList8.opList3

[system.cpu.fuPool.FUList8.opList0]
type=OpDesc
eventq_index=0
opClass=MemRead
opLat=1
pipelined=true

[system.cpu.fuPool.FUList8.opList1]
type=OpDesc
eventq_index=0
opClass=MemWrite
opLat=1
pipelined=true

[system.cpu.fuPool.FUList8.opList2]
type=OpDesc
eventq_index=0
opClass=FloatMemRead
opLat=1
pipelined=true

[system.cpu.fuPool.FUList8.opList3]
type=OpDesc
eventq_index=0
opClass=FloatMemWrite
opLat=1
pipelined=true

[system.cpu.fuPool.FUList9]
type=FUDesc
children=opList
count=1
eventq_index=0
opList=system.cpu.fuPool.FUList9.opList

[system.cpu.fuPool.FUList9.opList]
type=OpDesc
eventq_index=0
opClass=IprAccess
opLat=3
pipelined=false

[system.cpu.icache]
type=Cache
children=replacement_policy tags
addr_ranges=0:18446744073709551615
assoc=2
clk_domain=system.cpu_clk_domain
clusivity=mostly_incl
compressor=Null
data_latency=2
default_p_state=UNDEFINED
demand_mshr_reserve=1
eventq_index=0
is_read_only=true
max_miss_count=0
mshrs=4
p_state_clk_gate_bins=20
p_state_clk_gate_max=1000000000000
p_state_clk_gate_min=1000
power_model=
prefetch_on_access=false
prefetcher=Null
replacement_policy=system.cpu.icache.replacement_policy
response_latency=2
sequential_access=false
size=32768
system=system
tag_latency=2
tags=system.cpu.icache.tags
tgts_per_mshr=20
warmup_percentage=0
write_allocator=Null
write_buffers=8
writeback_clean=true
cpu_side=system.cpu.icache_port
mem_side=system.tol2bus.slave[0]

[system.cpu.icache.replacement_policy]
type=LRURP
eventq_index=0

[system.cpu.icache.tags]
type=BaseSetAssoc
children=indexing_policy
assoc=2
block_size=64
clk_domain=system.cpu_clk_domain
default_p_state=UNDEFINED
entry_size=64
eventq_index=0
indexing_policy=system.cpu.icache.tags.indexing_policy
p_state_clk_gate_bins=20
p_state_clk_gate_max=1000000000000
p_state_clk_gate_min=1000
power_model=
replacement_policy=system.cpu.icache.replacement_policy
sequential_access=false
size=32768
system=system
tag_latency=2
warmup_percentage=0

[system.cpu.icache.tags.indexing_policy]
type=SetAssociative
assoc=2
entry_size=64
eventq_index=0
size=32768

[system.cpu.interrupts]
type=ArmInterrupts
eventq_index=0

[system.cpu.isa]
type=ArmISA
decoderFlavour=Generic
eventq_index=0
fpsid=1090793632
id_aa64afr0_el1=0
id_aa64afr1_el1=0
id_aa64dfr0_el1=1052678
id_aa64dfr1_el1=0
id_aa64isar0_el1=0
id_aa64isar1_el1=0
id_aa64mmfr0_el1=15728642
id_aa64mmfr1_el1=1052672
id_aa64mmfr2_el1=0
id_isar0=34607377
id_isar1=34677009
id_isar2=555950401
id_isar3=17899825
id_isar4=268501314
id_isar5=0
id_mmfr0=270536963
id_mmfr1=0
id_mmfr2=19070976
id_mmfr3=34611729
impdef_nop=false
midr=0
pmu=Null
sve_vl_se=1
system=system

[system.cpu.itb]
type=ArmTLB
children=stage2_mmu walker
eventq_index=0
is_stage2=false
size=64
sys=system
walker=system.cpu.itb.walker

[system.cpu.itb.stage2_mmu]
type=ArmStage2MMU
children=stage2_tlb
eventq_index=0
stage2_tlb=system.cpu.itb.stage2_mmu.stage2_tlb
sys=system
tlb=system.cpu.itb

[system.cpu.itb.stage2_mmu.stage2_tlb]
type=ArmTLB
children=walker
eventq_index=0
is_stage2=true
size=32
sys=system
walker=system.cpu.itb.stage2_mmu.stage2_tlb.walker

[system.cpu.itb.stage2_mmu.stage2_tlb.walker]
type=ArmTableWalker
clk_domain=system.cpu_clk_domain
default_p_state=UNDEFINED
eventq_index=0
is_stage2=true
num_squash_per_cycle=2
p_state_clk_gate_bins=20
p_state_clk_gate_max=1000000000000
p_state_clk_gate_min=1000
power_model=
sys=system

[system.cpu.itb.walker]
type=ArmTableWalker
clk_domain=system.cpu_clk_domain
default_p_state=UNDEFINED
eventq_index=0
is_stage2=false
num_squash_per_cycle=2
p_state_clk_gate_bins=20
p_state_clk_gate_max=1000000000000
p_state_clk_gate_min=1000
power_model=
sys=system
port=system.tol2bus.slave[2]

[system.cpu.tracer]
type=ExeTracer
eventq_index=0

[system.cpu_clk_domain]
type=SrcClockDomain
clock=500
domain_id=-1
eventq_index=0
init_perf_level=0
voltage_domain=system.cpu_voltage_domain

[system.cpu_voltage_domain]
type=VoltageDomain
eventq_index=0
voltage=1.0

[system.dvfs_handler]
type=DVFSHandler
domains=
enable=false
eventq_index=0
sys_clk_domain=system.clk_domain
transition_latency=100000000

[system.intrctrl]
type=IntrControl
eventq_index=0
sys=system

[system.iobus]
type=NoncoherentXBar
clk_domain=system.clk_domain
default_p_state=UNDEFINED
eventq_index=0
forward_latency=1
frontend_latency=2
p_state_clk_gate_bins=20
p_state_clk_gate_max=1000000000000
p_state_clk_gate_min=1000
power_model=
response_latency=2
use_default_range=false
width=16
master=system.realview.realview_io.pio system.realview.uart.pio system.realview.kmi0.pio system.realview.kmi1.pio system.realview.rtc.pio system.realview.pci_host.pio system.realview.energy_ctrl.pio system.realview.vio0.pio system.realview.vio1.pio system.pci_ide.pio system.iocache.cpu_side
slave=system.bridge.master system.pci_ide.dma

[system.iocache]
type=Cache
children=replacement_policy tags
addr_ranges=2147483648:6442450944
assoc=8
clk_domain=system.clk_domain
clusivity=mostly_incl
compressor=Null
data_latency=50
default_p_state=UNDEFINED
demand_mshr_reserve=1
eventq_index=0
is_read_only=false
max_miss_count=0
mshrs=20
p_state_clk_gate_bins=20
p_state_clk_gate_max=1000000000000
p_state_clk_gate_min=1000
power_model=
prefetch_on_access=false
prefetcher=Null
replacement_policy=system.iocache.replacement_policy
response_latency=50
sequential_access=false
size=1024
system=system
tag_latency=50
tags=system.iocache.tags
tgts_per_mshr=12
warmup_percentage=0
write_allocator=Null
write_buffers=8
writeback_clean=false
cpu_side=system.iobus.master[10]
mem_side=system.membus.slave[2]

[system.iocache.replacement_policy]
type=LRURP
eventq_index=0

[system.iocache.tags]
type=BaseSetAssoc
children=indexing_policy
assoc=8
block_size=64
clk_domain=system.clk_domain
default_p_state=UNDEFINED
entry_size=64
eventq_index=0
indexing_policy=system.iocache.tags.indexing_policy
p_state_clk_gate_bins=20
p_state_clk_gate_max=1000000000000
p_state_clk_gate_min=1000
power_model=
replacement_policy=system.iocache.replacement_policy
sequential_access=false
size=1024
system=system
tag_latency=50
warmup_percentage=0

[system.iocache.tags.indexing_policy]
type=SetAssociative
assoc=8
entry_size=64
eventq_index=0
size=1024

[system.l2]
type=Cache
children=replacement_policy tags
addr_ranges=0:18446744073709551615
assoc=8
clk_domain=system.cpu_clk_domain
clusivity=mostly_incl
compressor=Null
data_latency=20
default_p_state=UNDEFINED
demand_mshr_reserve=1
eventq_index=0
is_read_only=false
max_miss_count=0
mshrs=20
p_state_clk_gate_bins=20
p_state_clk_gate_max=1000000000000
p_state_clk_gate_min=1000
power_model=
prefetch_on_access=false
prefetcher=Null
replacement_policy=system.l2.replacement_policy
response_latency=20
sequential_access=false
size=2097152
system=system
tag_latency=20
tags=system.l2.tags
tgts_per_mshr=12
warmup_percentage=0
write_allocator=Null
write_buffers=8
writeback_clean=false
cpu_side=system.tol2bus.master[0]
mem_side=system.membus.slave[3]

[system.l2.replacement_policy]
type=LRURP
eventq_index=0

[system.l2.tags]
type=BaseSetAssoc
children=indexing_policy
assoc=8
block_size=64
clk_domain=system.cpu_clk_domain
default_p_state=UNDEFINED
entry_size=64
eventq_index=0
indexing_policy=system.l2.tags.indexing_policy
p_state_clk_gate_bins=20
p_state_clk_gate_max=1000000000000
p_state_clk_gate_min=1000
power_model=
replacement_policy=system.l2.replacement_policy
sequential_access=false
size=2097152
system=system
tag_latency=20
warmup_percentage=0

[system.l2.tags.indexing_policy]
type=SetAssociative
assoc=8
entry_size=64
eventq_index=0
size=2097152

[system.mem_ctrls]
type=DRAMCtrl
IDD0=0.055
IDD02=0.0
IDD2N=0.032
IDD2N2=0.0
IDD2P0=0.0
IDD2P02=0.0
IDD2P1=0.032
IDD2P12=0.0
IDD3N=0.038
IDD3N2=0.0
IDD3P0=0.0
IDD3P02=0.0
IDD3P1=0.038
IDD3P12=0.0
IDD4R=0.157
IDD4R2=0.0
IDD4W=0.125
IDD4W2=0.0
IDD5=0.235
IDD52=0.0
IDD6=0.02
IDD62=0.0
VDD=1.5
VDD2=0.0
activation_limit=4
addr_mapping=RoRaBaCoCh
bank_groups_per_rank=0
banks_per_rank=8
burst_length=8
clk_domain=system.clk_domain
conf_table_reported=true
default_p_state=UNDEFINED
device_bus_width=8
device_rowbuffer_size=1024
device_size=536870912
devices_per_rank=8
dll=true
enable_dram_powerdown=false
eventq_index=0
in_addr_map=true
kvm_map=true